<?xml version="1.0" encoding="UTF-8"?>

<!-- generated on Mon Aug 24 12:11:47 2020 by Eclipse SUMO netconvert Version 1.6.0
<configuration xmlns:xsi="http://www.w3.org/2001/XMLSchema-instance" xsi:noNamespaceSchemaLocation="http://sumo.dlr.de/xsd/netconvertConfiguration.xsd">

    <input>
        <osm-files value="/home/buse/git/serpent-gym/scenario/lysevegen.osm"/>
    </input>

    <output>
        <output-file value="/home/buse/git/serpent-gym/scenario/lysevegen.net.xml"/>
    </output>

    <projection>
        <proj.utm value="true"/>
    </projection>

    <processing>
        <geometry.remove value="true"/>
    </processing>

    <ramp_guessing>
        <ramps.guess value="true"/>
    </ramp_guessing>

    <edge_removal>
        <remove-edges.by-type value="highway.service,highway.track,highway.path"/>
    </edge_removal>

    <junctions>
        <junctions.join value="true"/>
    </junctions>

    <report>
        <aggregate-warnings value="5"/>
    </report>

</configuration>
-->

<net version="1.6" junctionCornerDetail="5" limitTurnSpeed="5.50" xmlns:xsi="http://www.w3.org/2001/XMLSchema-instance" xsi:noNamespaceSchemaLocation="http://sumo.dlr.de/xsd/net_file.xsd">

    <location netOffset="-365123.76,-6545639.61" convBoundary="0.00,0.00,1067.92,2873.64" origBoundary="6.644455,59.029018,6.668564,59.056047" projParameter="+proj=utm +zone=32 +ellps=WGS84 +datum=WGS84 +units=m +no_defs"/>

    <type id="highway.bridleway" priority="1" numLanes="1" speed="2.78" allow="pedestrian" oneway="1" width="2.00"/>
    <type id="highway.bus_guideway" priority="1" numLanes="1" speed="27.78" allow="bus" oneway="1"/>
    <type id="highway.cycleway" priority="1" numLanes="1" speed="8.33" allow="bicycle" oneway="0" width="1.00"/>
    <type id="highway.footway" priority="1" numLanes="1" speed="2.78" allow="pedestrian" oneway="1" width="2.00"/>
    <type id="highway.ford" priority="1" numLanes="1" speed="2.78" allow="army" oneway="0"/>
    <type id="highway.living_street" priority="2" numLanes="1" speed="2.78" disallow="tram rail_urban rail rail_electric rail_fast ship" oneway="0"/>
    <type id="highway.motorway" priority="14" numLanes="2" speed="39.44" allow="private emergency authority army vip passenger hov taxi bus coach delivery truck trailer motorcycle evehicle custom1 custom2" oneway="1"/>
    <type id="highway.motorway_link" priority="9" numLanes="1" speed="22.22" allow="private emergency authority army vip passenger hov taxi bus coach delivery truck trailer motorcycle evehicle custom1 custom2" oneway="1"/>
    <type id="highway.path" priority="1" numLanes="1" speed="2.78" allow="pedestrian bicycle" oneway="1" width="2.00"/>
    <type id="highway.pedestrian" priority="1" numLanes="1" speed="2.78" allow="pedestrian" oneway="1" width="2.00"/>
    <type id="highway.primary" priority="12" numLanes="2" speed="27.78" disallow="tram rail_urban rail rail_electric rail_fast ship" oneway="0"/>
    <type id="highway.primary_link" priority="7" numLanes="1" speed="22.22" disallow="tram rail_urban rail rail_electric rail_fast ship" oneway="0"/>
    <type id="highway.raceway" priority="15" numLanes="2" speed="83.33" allow="vip" oneway="0"/>
    <type id="highway.residential" priority="3" numLanes="1" speed="13.89" disallow="tram rail_urban rail rail_electric rail_fast ship" oneway="0"/>
    <type id="highway.secondary" priority="11" numLanes="1" speed="27.78" disallow="tram rail_urban rail rail_electric rail_fast ship" oneway="0"/>
    <type id="highway.secondary_link" priority="6" numLanes="1" speed="22.22" disallow="tram rail_urban rail rail_electric rail_fast ship" oneway="0"/>
    <type id="highway.service" priority="1" numLanes="1" speed="5.56" allow="pedestrian delivery bicycle" oneway="0"/>
    <type id="highway.stairs" priority="1" numLanes="1" speed="1.39" allow="pedestrian" oneway="1" width="2.00"/>
    <type id="highway.step" priority="1" numLanes="1" speed="1.39" allow="pedestrian" oneway="1" width="2.00"/>
    <type id="highway.steps" priority="1" numLanes="1" speed="1.39" allow="pedestrian" oneway="1" width="2.00"/>
    <type id="highway.tertiary" priority="10" numLanes="1" speed="22.22" disallow="tram rail_urban rail rail_electric rail_fast ship" oneway="0"/>
    <type id="highway.tertiary_link" priority="5" numLanes="1" speed="22.22" disallow="tram rail_urban rail rail_electric rail_fast ship" oneway="0"/>
    <type id="highway.track" priority="1" numLanes="1" speed="5.56" disallow="tram rail_urban rail rail_electric rail_fast ship" oneway="0"/>
    <type id="highway.trunk" priority="13" numLanes="2" speed="27.78" disallow="pedestrian bicycle tram rail_urban rail rail_electric rail_fast ship" oneway="0"/>
    <type id="highway.trunk_link" priority="8" numLanes="1" speed="22.22" disallow="pedestrian bicycle tram rail_urban rail rail_electric rail_fast ship" oneway="0"/>
    <type id="highway.unclassified" priority="4" numLanes="1" speed="13.89" disallow="tram rail_urban rail rail_electric rail_fast ship" oneway="0"/>
    <type id="highway.unsurfaced" priority="1" numLanes="1" speed="8.33" disallow="tram rail_urban rail rail_electric rail_fast ship" oneway="0"/>
    <type id="railway.highspeed" priority="21" numLanes="1" speed="69.44" allow="rail_fast" oneway="1"/>
    <type id="railway.light_rail" priority="19" numLanes="1" speed="27.78" allow="rail_urban" oneway="1"/>
    <type id="railway.preserved" priority="16" numLanes="1" speed="27.78" allow="rail" oneway="1"/>
    <type id="railway.rail" priority="20" numLanes="1" speed="44.44" allow="rail" oneway="1"/>
    <type id="railway.subway" priority="18" numLanes="1" speed="27.78" allow="rail_urban" oneway="1"/>
    <type id="railway.tram" priority="17" numLanes="1" speed="13.89" allow="tram" oneway="1"/>

    <edge id=":6896358177_0" function="internal">
        <lane id=":6896358177_0_0" index="0" disallow="tram rail_urban rail rail_electric rail_fast ship" speed="3.65" length="4.67" shape="946.97,2874.61 945.60,2875.08 944.72,2874.90 944.33,2874.10 944.43,2872.66"/>
    </edge>
    <edge id=":6896358999_0" function="internal">
        <lane id=":6896358999_0_0" index="0" disallow="tram rail_urban rail rail_electric rail_fast ship" speed="3.65" length="4.67" shape="444.63,-1.28 446.07,-1.36 446.87,-0.96 447.03,-0.08 446.55,1.28"/>
    </edge>

    <edge id="-40069909" from="6896358999" to="6896358177" priority="11" type="highway.secondary" shape="445.59,0.00 437.63,5.98 431.97,10.99 429.11,13.93 426.59,17.42 424.18,21.90 420.41,32.58 412.46,57.40 408.90,69.19 407.03,76.53 402.71,94.47 398.80,113.35 396.47,131.37 395.88,152.34 396.35,171.61 397.00,180.98 397.23,196.23 396.98,203.42 395.40,217.59 393.57,227.95 390.78,239.91 389.01,247.36 384.89,261.92 381.33,273.61 373.44,296.73 369.74,306.61 363.62,324.39 358.90,333.47 353.78,340.23 350.80,343.26 344.68,347.91 339.91,350.79 326.03,357.05 321.60,359.46 310.00,364.91 302.19,369.32 292.29,375.73 279.96,384.83 273.45,389.25 260.11,397.27 240.60,408.13 235.90,411.30 229.16,417.21 222.16,425.99 218.69,431.09 204.28,454.32 194.55,468.97 191.09,475.06 187.61,481.46 184.75,487.61 180.35,498.63 175.90,511.35 172.49,524.76 168.26,546.11 162.19,584.41 160.64,597.19 160.01,610.86 161.60,655.37 160.18,675.47 157.71,687.27 144.10,733.81 140.14,748.88 129.87,801.63 127.70,816.75 126.66,830.48 124.58,869.05 122.15,890.47 121.32,903.00 121.61,917.45 123.07,933.51 123.67,945.68 123.31,956.37 122.73,962.72 120.32,977.22 118.87,988.91 117.91,1006.25 117.84,1016.96 118.84,1036.88 121.46,1075.57 121.63,1092.61 121.08,1097.47 120.17,1102.09 117.30,1112.76 113.57,1123.03 106.36,1139.71 104.94,1143.45 102.80,1149.10 100.05,1159.67 98.49,1171.35 94.71,1234.39 95.08,1246.85 98.50,1269.99 99.48,1280.19 99.36,1285.99 98.49,1291.12 97.00,1296.60 94.91,1302.01 89.24,1312.72 81.33,1326.02 54.98,1366.01 51.42,1373.29 47.58,1384.77 41.61,1413.17 40.50,1417.68 38.58,1423.52 34.83,1431.69 15.64,1465.61 7.16,1481.97 4.53,1488.84 3.09,1493.72 0.53,1505.51 0.00,1517.98 0.08,1523.79 1.05,1532.99 2.29,1537.01 4.68,1539.43 7.44,1540.98 9.70,1541.48 12.44,1541.03 15.37,1539.69 18.19,1537.34 19.71,1534.88 21.63,1530.24 25.13,1518.04 29.45,1506.92 36.96,1494.68 41.09,1488.84 50.42,1477.56 55.35,1472.90 59.66,1469.48 63.79,1467.05 68.26,1465.26 72.36,1464.12 77.04,1463.34 80.14,1463.42 82.77,1464.25 84.67,1465.34 86.31,1467.18 87.51,1469.39 88.03,1472.45 87.52,1476.00 85.80,1479.45 82.68,1484.08 72.91,1495.82 64.56,1507.28 61.79,1512.43 60.21,1516.60 59.30,1521.13 58.73,1531.99 58.74,1539.60 60.20,1563.37 62.85,1595.06 64.37,1620.33 65.14,1650.64 64.96,1661.55 64.46,1669.31 63.18,1679.01 59.11,1700.77 52.33,1732.62 50.37,1744.35 50.06,1750.04 51.07,1762.14 52.44,1768.07 54.72,1773.79 58.42,1780.64 62.65,1788.02 75.50,1805.51 82.49,1814.55 88.87,1821.53 95.16,1827.31 102.63,1833.30 109.15,1837.59 114.52,1840.28 119.65,1842.24 126.40,1843.97 132.81,1844.75 138.16,1844.85 144.10,1844.35 150.89,1843.46 157.53,1841.95 161.67,1840.43 167.99,1837.09 176.09,1831.62 180.32,1827.99 185.71,1822.66 191.33,1817.06 200.90,1809.71 205.07,1806.79 214.04,1801.70 218.75,1799.51 227.53,1796.50 247.49,1790.69 255.49,1787.41 263.92,1782.86 270.10,1777.60 274.32,1770.78 275.67,1766.90 277.26,1757.03 277.46,1751.54 278.20,1745.59 280.55,1733.99 282.18,1729.12 284.05,1725.19 286.84,1720.84 289.84,1717.60 292.83,1715.47 296.09,1713.76 299.71,1712.48 303.07,1711.89 306.59,1711.70 309.87,1711.99 312.62,1712.64 318.49,1715.28 323.95,1719.08 326.53,1721.62 328.90,1724.23 331.30,1727.56 335.29,1734.43 338.83,1743.95 340.06,1749.17 342.32,1761.89 344.72,1778.64 346.08,1784.56 349.73,1797.42 351.30,1804.46 353.32,1817.57 354.47,1830.30 355.12,1845.27 354.03,1872.92 353.87,1897.94 352.54,1911.64 349.76,1923.51 345.99,1936.49 338.16,1957.72 333.67,1967.62 330.00,1973.79 326.67,1978.50 322.33,1984.43 317.65,1989.71 312.02,1995.51 300.15,2006.06 288.31,2017.41 285.22,2021.64 283.53,2024.89 283.38,2029.78 284.27,2032.16 285.70,2034.09 289.77,2036.67 291.93,2037.16 294.24,2037.07 296.59,2036.59 299.30,2035.42 303.57,2032.51 321.32,2017.78 327.33,2013.42 338.41,2007.11 346.18,2003.20 350.97,2000.03 355.60,1996.44 361.93,1988.40 368.84,1978.40 372.19,1974.61 377.38,1971.46 380.15,1970.82 382.46,1970.73 384.79,1971.54 386.40,1972.48 388.91,1975.82 389.41,1978.06 389.56,1980.77 389.09,1983.74 387.82,1986.73 384.44,1990.83 378.82,1996.53 364.56,2009.27 356.58,2017.76 352.70,2023.01 336.01,2048.05 327.25,2063.08 324.46,2067.33 321.57,2070.48 317.42,2074.31 312.57,2078.08 307.26,2081.51 293.73,2087.09 275.86,2093.19 272.75,2095.42 269.98,2098.37 269.00,2100.39 268.34,2103.23 268.27,2106.23 269.27,2109.53 271.06,2111.99 273.40,2113.81 277.97,2115.22 283.47,2114.21 286.60,2112.80 290.52,2110.44 299.66,2103.56 304.02,2100.74 330.64,2085.42 336.93,2081.18 348.32,2072.59 355.58,2067.65 364.54,2062.64 370.71,2059.79 376.09,2057.88 385.78,2055.95 395.40,2055.82 399.96,2056.32 404.08,2057.39 407.91,2059.24 410.21,2060.46 412.64,2062.38 420.83,2069.23 446.98,2093.52 451.33,2096.41 455.75,2098.52 469.33,2103.35 473.37,2105.21 475.80,2107.13 478.18,2109.56 479.27,2111.86 479.76,2114.31 479.51,2116.99 478.61,2119.22 476.46,2121.92 474.28,2123.93 470.71,2125.81 465.87,2127.28 450.07,2130.36 431.93,2134.93 423.49,2137.47 393.64,2148.60 386.14,2151.73 383.76,2152.61 381.27,2153.59 368.22,2158.32 362.35,2160.19 358.07,2161.00 353.53,2161.30 331.89,2161.44 327.75,2161.78 324.07,2162.64 320.88,2164.66 318.88,2166.88 317.81,2169.89 317.91,2173.20 318.87,2175.90 320.43,2178.54 323.62,2180.93 328.17,2182.64 344.00,2185.87 352.10,2188.31 356.34,2190.10 363.11,2193.82 372.33,2200.45 376.95,2203.67 378.73,2205.04 380.53,2206.20 387.40,2211.03 424.74,2238.94 431.84,2243.48 438.41,2246.17 443.58,2247.65 449.83,2248.31 454.82,2247.45 458.44,2246.18 462.06,2243.80 467.21,2238.86 485.57,2217.39 492.65,2210.01 501.74,2202.42 507.93,2198.27 512.12,2196.24 515.69,2195.47 519.21,2195.28 524.24,2197.34 527.64,2200.66 529.05,2202.88 529.81,2205.45 529.96,2208.28 529.28,2211.32 527.87,2213.69 525.71,2216.50 517.95,2223.71 488.30,2248.17 485.57,2250.73 483.42,2253.44 480.78,2259.42 480.48,2262.69 481.21,2265.76 482.76,2268.51 484.81,2270.20 487.41,2271.33 490.47,2271.80 493.49,2271.67 496.72,2270.37 500.95,2267.75 506.10,2264.00 526.37,2248.01 539.00,2240.13 543.42,2237.73 553.08,2233.90 558.18,2232.95 562.50,2232.74 574.36,2234.51 578.27,2235.57 580.95,2236.91 583.40,2238.63 585.43,2240.62 586.80,2243.15 587.06,2245.78 586.59,2248.84 585.45,2251.44 583.08,2254.33 579.47,2257.80 568.57,2266.53 564.44,2270.08 560.47,2274.12 556.47,2279.57 544.52,2297.62 537.39,2305.69 530.59,2311.08 526.71,2313.04 521.85,2314.70 510.38,2315.37 491.23,2314.44 485.80,2314.65 482.14,2315.32 478.54,2316.40 476.31,2317.80 474.62,2319.85 472.95,2323.90 472.96,2326.01 473.32,2328.74 474.51,2331.06 476.43,2333.13 479.09,2334.68 482.09,2335.84 485.46,2336.25 491.24,2336.57 505.88,2336.39 540.50,2334.51 549.20,2333.49 555.41,2332.35 560.34,2330.99 569.93,2326.86 592.37,2313.45 601.10,2309.94 606.35,2308.40 614.62,2306.65 624.50,2305.84 631.81,2305.90 639.08,2306.35 644.12,2307.11 648.49,2308.61 651.91,2310.62 653.95,2312.51 655.42,2315.04 656.15,2319.21 655.78,2322.08 654.54,2324.78 653.07,2326.65 650.70,2328.54 647.28,2329.83 626.77,2333.99 621.08,2335.97 617.72,2337.67 611.90,2342.26 608.16,2346.02 604.65,2350.51 597.84,2361.52 590.86,2374.51 587.45,2380.21 584.29,2385.13 580.48,2389.70 576.23,2393.52 571.62,2396.91 565.32,2400.15 545.02,2408.63 541.17,2411.28 538.33,2413.93 537.07,2416.82 537.04,2420.53 537.44,2422.67 538.18,2424.43 539.43,2426.15 540.82,2427.47 542.43,2428.42 546.85,2429.42 549.26,2429.34 552.51,2428.84 566.14,2425.46 584.28,2422.99 594.98,2422.05 624.93,2420.95 642.08,2418.40 646.06,2417.64 655.36,2414.49 659.31,2412.83 666.36,2409.06 669.99,2407.69 687.04,2403.02 694.13,2402.16 697.94,2402.11 708.95,2403.19 727.78,2406.60 730.60,2407.46 737.02,2408.44 756.81,2413.33 778.41,2416.97 789.70,2419.60 793.20,2420.71 797.46,2422.30 802.04,2424.82 812.70,2433.19 826.14,2445.23 828.09,2448.00 828.87,2451.58 828.99,2453.60 827.80,2459.00 825.93,2461.93 824.08,2463.56 822.39,2464.52 819.62,2465.27 816.19,2465.56 811.79,2465.47 800.84,2463.66 795.34,2462.48 774.10,2455.85 765.48,2453.77 756.88,2453.59 751.36,2454.90 745.75,2457.09 739.97,2461.18 734.83,2466.02 729.75,2472.37 715.38,2495.11 711.56,2499.68 704.03,2506.61 701.65,2508.50 698.69,2510.23 695.96,2511.59 691.52,2513.09 680.54,2514.90 667.82,2516.06 665.06,2516.71 660.78,2518.62 658.82,2520.35 658.00,2521.58 656.84,2524.48 657.02,2529.21 658.02,2532.50 660.70,2536.14 661.92,2537.06 665.88,2538.61 670.60,2539.64 680.39,2539.82 690.41,2538.72 708.85,2535.28 727.47,2530.86 739.38,2528.73 744.41,2527.38 753.27,2524.67 769.20,2516.79 771.57,2516.01 775.91,2515.70 778.56,2516.34 782.59,2518.31 783.79,2519.42 785.45,2522.07 785.69,2523.90 785.35,2526.47 784.80,2528.12 783.45,2530.91 781.80,2532.56 779.40,2534.75 775.69,2537.02 750.15,2549.22 740.49,2553.06 736.58,2554.21 727.50,2556.00 718.50,2556.99 715.64,2557.63 710.44,2559.76 708.61,2561.20 707.48,2562.60 706.16,2566.19 706.21,2570.00 706.93,2572.07 709.58,2575.91 713.39,2578.16 718.87,2579.55 726.32,2580.23 734.95,2580.00 740.41,2579.40 749.35,2578.09 759.76,2575.83 789.19,2568.27 798.68,2567.43 804.28,2567.53 817.50,2569.83 822.17,2571.25 832.53,2575.19 847.52,2582.26 857.26,2586.34 864.75,2588.82 881.22,2592.81 905.04,2596.26 915.11,2596.76 925.86,2596.43 942.24,2594.61 946.25,2594.67 950.91,2596.29 952.77,2597.77 954.74,2600.45 955.12,2602.79 954.72,2606.16 953.20,2608.62 950.52,2611.69 943.48,2615.35 938.13,2616.88 932.22,2617.94 918.62,2620.02 904.14,2621.72 859.42,2624.59 853.06,2625.11 850.71,2625.61 847.74,2626.34 845.56,2627.25 841.16,2630.46 839.24,2633.99 838.67,2635.84 838.68,2637.94 839.10,2639.98 842.03,2645.26 844.41,2647.77 850.83,2652.06 856.73,2655.50 876.11,2664.85 885.83,2668.13 891.85,2669.18 900.17,2669.03 910.02,2667.52 915.79,2665.84 925.97,2661.75 943.45,2655.61 952.89,2653.06 965.37,2650.18 987.28,2645.95 994.96,2645.24 998.14,2645.53 1000.94,2646.58 1004.00,2648.26 1005.56,2649.80 1007.50,2653.88 1007.79,2656.21 1007.50,2658.29 1006.23,2660.18 1004.87,2661.96 1002.72,2663.57 996.10,2666.97 991.99,2668.11 982.20,2670.02 962.32,2672.83 951.41,2675.06 944.53,2678.04 942.13,2680.13 940.78,2681.81 939.63,2684.52 939.09,2687.27 939.84,2690.04 940.67,2691.91 942.61,2693.70 944.01,2694.82 946.90,2696.19 950.56,2696.62 971.57,2695.70 985.60,2694.57 998.92,2692.27 1005.51,2690.26 1017.37,2685.42 1027.71,2681.75 1031.91,2680.82 1035.60,2680.96 1039.32,2681.89 1041.23,2682.87 1043.28,2684.66 1044.78,2689.10 1044.44,2691.77 1043.66,2693.71 1042.19,2695.57 1040.00,2697.68 1037.32,2699.65 1031.29,2703.20 1027.84,2704.79 1015.06,2708.75 988.43,2711.95 984.73,2713.02 982.08,2714.68 980.16,2717.11 978.96,2719.30 978.31,2722.06 978.24,2725.05 978.93,2727.42 980.40,2729.95 987.68,2735.82 998.05,2739.66 1004.67,2740.66 1008.21,2740.28 1016.64,2737.84 1020.28,2736.46 1029.55,2732.39 1045.16,2724.78 1052.77,2721.56 1059.91,2721.21 1062.76,2721.77 1064.53,2723.22 1066.26,2725.19 1067.72,2727.83 1067.92,2730.05 1067.54,2733.11 1066.10,2735.78 1063.87,2738.29 1057.69,2742.44 1042.57,2750.19 1025.44,2757.96 1016.27,2760.83 1011.89,2761.64 998.45,2763.03 989.13,2761.99 985.72,2760.88 981.30,2758.77 970.62,2752.81 966.58,2751.04 963.35,2750.15 959.09,2749.67 955.55,2750.05 952.16,2750.94 950.11,2752.55 948.13,2754.58 946.55,2757.74 946.60,2760.46 947.53,2765.74 951.74,2771.23 954.76,2774.31 958.59,2777.46 968.31,2783.95 979.13,2790.63 987.65,2794.91 994.45,2797.32 999.08,2798.14 1005.82,2798.85 1009.54,2798.69 1021.10,2796.12 1035.79,2789.73 1041.89,2787.68 1045.35,2788.20 1047.86,2789.22 1050.27,2791.35 1051.42,2794.15 1051.85,2797.10 1051.16,2800.34 1049.60,2803.20 1043.96,2808.00 1040.87,2810.03 1037.30,2811.90 1033.25,2813.44 1022.75,2816.60 1013.11,2818.03 1008.98,2818.26 1003.10,2817.94 989.84,2815.13 977.70,2810.83 973.11,2808.42 969.05,2805.74 965.63,2803.63 962.61,2801.65 959.81,2799.30 956.55,2795.60 951.48,2787.43 947.92,2780.20 943.75,2767.61 924.24,2696.44 908.75,2638.36 906.35,2630.53 903.36,2618.24 888.05,2562.58 875.97,2515.62 840.41,2384.73 836.41,2366.93 835.66,2361.96 835.38,2357.33 835.52,2352.43 836.71,2348.13 838.44,2344.49 843.76,2337.66 847.31,2334.97 851.14,2332.41 855.33,2330.39 859.73,2329.38 863.76,2329.15 867.83,2329.52 872.02,2330.80 875.76,2332.63 879.32,2335.35 882.34,2338.54 885.02,2342.18 887.43,2346.50 890.75,2355.21 892.95,2364.13 895.31,2379.06 899.93,2417.74 907.17,2471.77 923.30,2585.89 927.42,2619.01 928.28,2623.90 930.71,2643.65 934.34,2667.71 937.22,2691.30 946.18,2752.90 951.68,2795.16 957.00,2831.59 957.23,2841.23 956.93,2845.71 956.10,2850.44 953.61,2859.13 950.10,2867.03 948.07,2870.54 945.70,2873.64">