<?xml version="1.0" encoding="UTF-8"?>
<configuration xmlns:xsi="http://www.w3.org/2001/XMLSchema-instance" xsi:noNamespaceSchemaLocation="http://sumo.dlr.de/xsd/sumoConfiguration.xsd">

    <input>
        <net-file value="lysevegen.net.xml" synonymes="n net" type="FILE" help="Load road network description from FILE"/>
        <route-files value="lysevegen.rou.xml" synonymes="r routes" type="FILE" help="Load routes descriptions from FILE(s)"/>
    </input>

    <time>
        <begin value="0" synonymes="b" type="TIME" help="Defines the begin time in seconds; The simulation starts at this time"/>
        <end value="-1" synonymes="e" type="TIME" help="Defines the end time in seconds; The simulation ends at this time"/>
        <step-length value="0.1" type="TIME" help="Defines the step duration in seconds"/>
    </time>

    <random_number>
        <random value="false" synonymes="abs-rand" type="BOOL" help="Initialises the random number generator with the current system time"/>
        <seed value="23423" synonymes="srand" type="INT" help="Initialises the random number generator with the given value"/>
        <thread-rngs value="64" type="INT" help="Number of pre-allocated random number generators to ensure repeatable multi-threaded simulations (should be at least the number of threads for repeatable simulations)."/>
    </random_number>

</configuration>
