<?xml version="1.0" encoding="UTF-8"?>

<!-- generated on Thu Jul  9 13:42:22 2020 by Eclipse SUMO netconvert Version 1.6.0
<configuration xmlns:xsi="http://www.w3.org/2001/XMLSchema-instance" xsi:noNamespaceSchemaLocation="http://sumo.dlr.de/xsd/netconvertConfiguration.xsd">

    <input>
        <sumo-net-file value="scenario/serpentine.net.xml"/>
    </input>

    <output>
        <output-file value="scenario/serpentine2.net.xml"/>
    </output>

    <processing>
        <geometry.min-radius.fix.railways value="false"/>
        <geometry.max-grade.fix value="false"/>
        <offset.disable-normalization value="true"/>
        <lefthand value="false"/>
    </processing>

    <junctions>
        <no-turnarounds value="true"/>
        <junctions.corner-detail value="5"/>
        <junctions.limit-turn-speed value="5.5"/>
        <rectangular-lane-cut value="false"/>
    </junctions>

    <pedestrian>
        <walkingareas value="false"/>
    </pedestrian>

    <report>
        <aggregate-warnings value="5"/>
    </report>

</configuration>
-->

<net version="1.6" junctionCornerDetail="5" limitTurnSpeed="5.50" xmlns:xsi="http://www.w3.org/2001/XMLSchema-instance" xsi:noNamespaceSchemaLocation="http://sumo.dlr.de/xsd/net_file.xsd">
    <location netOffset="-466938.80,-5152400.05" convBoundary="614.99,106.36,2462.03,1473.30" origBoundary="8.453504,46.475128,8.609103,46.582208" projParameter="+proj=utm +zone=32 +ellps=WGS84 +datum=WGS84 +units=m +no_defs"/>

    <type id="highway.bridleway" priority="1" numLanes="1" speed="2.78" allow="pedestrian" oneway="1" width="2.00"/>
    <type id="highway.bus_guideway" priority="1" numLanes="1" speed="27.78" allow="bus" oneway="1"/>
    <type id="highway.cycleway" priority="1" numLanes="1" speed="8.33" allow="bicycle" oneway="0" width="1.00"/>
    <type id="highway.footway" priority="1" numLanes="1" speed="2.78" allow="pedestrian" oneway="1" width="2.00"/>
    <type id="highway.ford" priority="1" numLanes="1" speed="2.78" allow="army" oneway="0"/>
    <type id="highway.living_street" priority="2" numLanes="1" speed="2.78" disallow="tram rail_urban rail rail_electric rail_fast ship" oneway="0"/>
    <type id="highway.motorway" priority="14" numLanes="2" speed="39.44" allow="private emergency authority army vip passenger hov taxi bus coach delivery truck trailer motorcycle evehicle custom1 custom2" oneway="1"/>
    <type id="highway.motorway_link" priority="9" numLanes="1" speed="22.22" allow="private emergency authority army vip passenger hov taxi bus coach delivery truck trailer motorcycle evehicle custom1 custom2" oneway="1"/>
    <type id="highway.path" priority="1" numLanes="1" speed="2.78" allow="pedestrian bicycle" oneway="1" width="2.00"/>
    <type id="highway.pedestrian" priority="1" numLanes="1" speed="2.78" allow="pedestrian" oneway="1" width="2.00"/>
    <type id="highway.primary" priority="12" numLanes="2" speed="27.78" disallow="tram rail_urban rail rail_electric rail_fast ship" oneway="0"/>
    <type id="highway.primary_link" priority="7" numLanes="1" speed="22.22" disallow="tram rail_urban rail rail_electric rail_fast ship" oneway="0"/>
    <type id="highway.raceway" priority="15" numLanes="2" speed="83.33" allow="vip" oneway="0"/>
    <type id="highway.residential" priority="3" numLanes="1" speed="13.89" disallow="tram rail_urban rail rail_electric rail_fast ship" oneway="0"/>
    <type id="highway.secondary" priority="11" numLanes="1" speed="27.78" disallow="tram rail_urban rail rail_electric rail_fast ship" oneway="0"/>
    <type id="highway.secondary_link" priority="6" numLanes="1" speed="22.22" disallow="tram rail_urban rail rail_electric rail_fast ship" oneway="0"/>
    <type id="highway.service" priority="1" numLanes="1" speed="5.56" allow="pedestrian delivery bicycle" oneway="0"/>
    <type id="highway.stairs" priority="1" numLanes="1" speed="1.39" allow="pedestrian" oneway="1" width="2.00"/>
    <type id="highway.step" priority="1" numLanes="1" speed="1.39" allow="pedestrian" oneway="1" width="2.00"/>
    <type id="highway.steps" priority="1" numLanes="1" speed="1.39" allow="pedestrian" oneway="1" width="2.00"/>
    <type id="highway.tertiary" priority="10" numLanes="1" speed="22.22" disallow="tram rail_urban rail rail_electric rail_fast ship" oneway="0"/>
    <type id="highway.tertiary_link" priority="5" numLanes="1" speed="22.22" disallow="tram rail_urban rail rail_electric rail_fast ship" oneway="0"/>
    <type id="highway.track" priority="1" numLanes="1" speed="5.56" disallow="tram rail_urban rail rail_electric rail_fast ship" oneway="0"/>
    <type id="highway.trunk" priority="13" numLanes="2" speed="27.78" disallow="pedestrian bicycle tram rail_urban rail rail_electric rail_fast ship" oneway="0"/>
    <type id="highway.trunk_link" priority="8" numLanes="1" speed="22.22" disallow="pedestrian bicycle tram rail_urban rail rail_electric rail_fast ship" oneway="0"/>
    <type id="highway.unclassified" priority="4" numLanes="1" speed="13.89" disallow="tram rail_urban rail rail_electric rail_fast ship" oneway="0"/>
    <type id="highway.unsurfaced" priority="1" numLanes="1" speed="8.33" disallow="tram rail_urban rail rail_electric rail_fast ship" oneway="0"/>
    <type id="railway.highspeed" priority="21" numLanes="1" speed="69.44" allow="rail_fast" oneway="1"/>
    <type id="railway.light_rail" priority="19" numLanes="1" speed="27.78" allow="rail_urban" oneway="1"/>
    <type id="railway.preserved" priority="16" numLanes="1" speed="27.78" allow="rail" oneway="1"/>
    <type id="railway.rail" priority="20" numLanes="1" speed="44.44" allow="rail" oneway="1"/>
    <type id="railway.subway" priority="18" numLanes="1" speed="27.78" allow="rail_urban" oneway="1"/>
    <type id="railway.tram" priority="17" numLanes="1" speed="13.89" allow="tram" oneway="1"/>

    <edge id=":1270180618_0" function="internal">
        <lane id=":1270180618_0_0" index="0" disallow="pedestrian bicycle tram rail_urban rail rail_electric rail_fast ship" speed="27.78" length="0.80" shape="908.77,601.78 908.08,601.15"/>
        <lane id=":1270180618_0_1" index="1" disallow="pedestrian bicycle tram rail_urban rail rail_electric rail_fast ship" speed="27.78" length="0.80" shape="910.82,599.32 910.33,598.87"/>
    </edge>
    <edge id=":1270180618_2" function="internal">
        <lane id=":1270180618_2_0" index="0" disallow="pedestrian bicycle tram rail_urban rail rail_electric rail_fast ship" speed="27.78" length="0.27" shape="914.82,594.31 914.92,594.40"/>
        <lane id=":1270180618_2_1" index="1" disallow="pedestrian bicycle tram rail_urban rail rail_electric rail_fast ship" speed="27.78" length="0.27" shape="912.57,596.59 912.87,596.86"/>
    </edge>
    <edge id=":24869339_0" function="internal">
        <lane id=":24869339_0_0" index="0" disallow="pedestrian bicycle tram rail_urban rail rail_electric rail_fast ship" speed="27.78" length="1.80" shape="1338.22,227.13 1337.99,227.26 1337.84,227.38 1337.73,227.52 1337.60,227.75"/>
        <lane id=":24869339_0_1" index="1" disallow="pedestrian bicycle tram rail_urban rail rail_electric rail_fast ship" speed="7.39" length="1.80" shape="1336.65,224.34 1335.96,224.74 1335.53,225.08 1335.19,225.52 1334.79,226.22"/>
    </edge>
    <edge id=":24869339_2" function="internal">
        <lane id=":24869339_2_0" index="0" disallow="pedestrian bicycle tram rail_urban rail rail_electric rail_fast ship" speed="11.03" length="5.41" shape="1329.18,223.14 1330.10,221.53 1330.90,220.50 1331.91,219.70 1333.52,218.76"/>
        <lane id=":24869339_2_1" index="1" disallow="pedestrian bicycle tram rail_urban rail rail_electric rail_fast ship" speed="9.39" length="5.41" shape="1331.99,224.68 1332.65,223.53 1333.21,222.79 1333.94,222.22 1335.08,221.55"/>
    </edge>
    <edge id=":24869503_0" function="internal">
        <lane id=":24869503_0_0" index="0" disallow="pedestrian bicycle tram rail_urban rail rail_electric rail_fast ship" speed="27.78" length="1.41" shape="1254.75,1084.62 1254.62,1084.15 1254.54,1083.82 1254.49,1083.49 1254.43,1083.01"/>
        <lane id=":24869503_0_1" index="1" disallow="pedestrian bicycle tram rail_urban rail rail_electric rail_fast ship" speed="27.78" length="1.41" shape="1257.83,1083.77 1257.74,1083.43 1257.69,1083.20 1257.65,1082.96 1257.60,1082.62"/>
    </edge>
    <edge id=":24869503_2" function="internal">
        <lane id=":24869503_2_0" index="0" disallow="pedestrian bicycle tram rail_urban rail rail_electric rail_fast ship" speed="27.78" length="0.47" shape="1263.96,1081.84 1263.97,1081.91 1263.97,1081.96 1263.98,1082.00 1264.00,1082.07"/>
        <lane id=":24869503_2_1" index="1" disallow="pedestrian bicycle tram rail_urban rail rail_electric rail_fast ship" speed="27.78" length="0.47" shape="1260.78,1082.23 1260.81,1082.44 1260.83,1082.58 1260.86,1082.72 1260.92,1082.92"/>
    </edge>
    <edge id=":24869516_0" function="internal">
        <lane id=":24869516_0_0" index="0" disallow="tram rail_urban rail rail_electric rail_fast ship" speed="27.78" length="1.75" shape="1497.44,1278.34 1496.86,1278.53 1496.46,1278.65 1496.05,1278.73 1495.45,1278.81"/>
        <lane id=":24869516_0_1" index="1" disallow="tram rail_urban rail rail_electric rail_fast ship" speed="27.78" length="1.75" shape="1496.42,1275.31 1496.00,1275.45 1495.72,1275.53 1495.43,1275.58 1495.00,1275.65"/>
    </edge>
    <edge id=":24869516_2" function="internal">
        <lane id=":24869516_2_0" index="0" disallow="tram rail_urban rail rail_electric rail_fast ship" speed="27.78" length="0.58" shape="1494.09,1269.31 1494.18,1269.30 1494.24,1269.29 1494.29,1269.27 1494.37,1269.24"/>
        <lane id=":24869516_2_1" index="1" disallow="tram rail_urban rail rail_electric rail_fast ship" speed="27.78" length="0.58" shape="1494.54,1272.48 1494.80,1272.44 1494.98,1272.41 1495.15,1272.36 1495.39,1272.28"/>
    </edge>
    <edge id=":24869579_0" function="internal">
        <lane id=":24869579_0_0" index="0" disallow="tram rail_urban rail rail_electric rail_fast ship" speed="3.65" length="4.67" shape="614.34,716.55 613.57,715.33 613.53,714.44 614.22,713.87 615.64,713.63"/>
    </edge>
    <edge id=":298988494_0" function="internal">
        <lane id=":298988494_0_0" index="0" disallow="tram rail_urban rail rail_electric rail_fast ship" speed="27.78" length="0.32" shape="885.15,1357.61 885.03,1357.30"/>
        <lane id=":298988494_0_1" index="1" disallow="tram rail_urban rail rail_electric rail_fast ship" speed="27.78" length="0.32" shape="888.12,1356.40 888.00,1356.12"/>
    </edge>
    <edge id=":298988494_2" function="internal">
        <lane id=":298988494_2_0" index="0" disallow="tram rail_urban rail rail_electric rail_fast ship" speed="27.78" length="0.27" shape="893.94,1353.74 894.04,1353.98"/>
        <lane id=":298988494_2_1" index="1" disallow="tram rail_urban rail rail_electric rail_fast ship" speed="27.78" length="0.27" shape="890.97,1354.93 891.08,1355.19"/>
    </edge>
    <edge id=":318343245_0" function="internal">
        <lane id=":318343245_0_0" index="0" disallow="pedestrian bicycle tram rail_urban rail rail_electric rail_fast ship" speed="3.65" length="4.67" shape="2461.17,105.01 2462.61,105.04 2463.38,105.50 2463.47,106.39 2462.89,107.71"/>
    </edge>
    <edge id=":3688461068_0" function="internal">
        <lane id=":3688461068_0_0" index="0" disallow="pedestrian bicycle tram rail_urban rail rail_electric rail_fast ship" speed="27.78" length="0.92" shape="1317.81,1222.39 1317.57,1222.19 1317.41,1222.05 1317.25,1221.90 1317.03,1221.67"/>
        <lane id=":3688461068_0_1" index="1" disallow="pedestrian bicycle tram rail_urban rail rail_electric rail_fast ship" speed="27.78" length="0.92" shape="1319.86,1219.94 1319.69,1219.79 1319.57,1219.69 1319.46,1219.58 1319.30,1219.42"/>
    </edge>
    <edge id=":3688461068_2" function="internal">
        <lane id=":3688461068_2_0" index="0" disallow="pedestrian bicycle tram rail_urban rail rail_electric rail_fast ship" speed="27.78" length="0.31" shape="1323.84,1214.91 1323.88,1214.95 1323.90,1214.97 1323.92,1214.99 1323.96,1215.02"/>
        <lane id=":3688461068_2_1" index="1" disallow="pedestrian bicycle tram rail_urban rail rail_electric rail_fast ship" speed="27.78" length="0.31" shape="1321.57,1217.17 1321.67,1217.26 1321.73,1217.33 1321.80,1217.39 1321.91,1217.48"/>
    </edge>
    <edge id=":377703145_0" function="internal">
        <lane id=":377703145_0_0" index="0" disallow="pedestrian bicycle tram rail_urban rail rail_electric rail_fast ship" speed="27.78" length="0.33" shape="2178.98,888.15 2178.66,888.02"/>
        <lane id=":377703145_0_1" index="1" disallow="pedestrian bicycle tram rail_urban rail rail_electric rail_fast ship" speed="27.78" length="0.33" shape="2180.18,885.19 2179.90,885.07"/>
    </edge>
    <edge id=":377703145_2" function="internal">
        <lane id=":377703145_2_0" index="0" disallow="pedestrian bicycle tram rail_urban rail rail_electric rail_fast ship" speed="27.78" length="0.26" shape="2182.37,879.17 2182.59,879.26"/>
        <lane id=":377703145_2_1" index="1" disallow="pedestrian bicycle tram rail_urban rail rail_electric rail_fast ship" speed="27.78" length="0.26" shape="2181.13,882.12 2181.39,882.22"/>
    </edge>

    <edge id="-129718739" from="3688461068" to="24869503" priority="13" type="highway.trunk" shape="1320.65,1218.51 1311.82,1209.60 1297.56,1190.96 1290.29,1178.38 1285.71,1165.56 1271.00,1125.59 1259.25,1082.89">
        <lane id="-129718739_0" index="0" disallow="pedestrian bicycle tram rail_urban rail rail_electric rail_fast ship" speed="27.78" length="151.90" shape="1317.03,1221.67 1308.19,1212.76 1293.56,1193.63 1285.92,1180.40 1281.20,1167.20 1266.43,1127.06 1254.75,1084.62"/>
        <lane id="-129718739_1" index="1" disallow="pedestrian bicycle tram rail_urban rail rail_electric rail_fast ship" speed="27.78" length="151.90" shape="1319.30,1219.42 1310.61,1210.65 1296.23,1191.85 1288.83,1179.05 1284.21,1166.11 1269.48,1126.08 1257.83,1083.77"/>
        <param key="ref" value="2"/>
    </edge>
    <edge id="-387580521" from="24869339" to="318343245" priority="13" type="highway.trunk" shape="1334.27,223.84 1341.46,219.80 1349.59,217.03 1362.52,216.68 1404.98,224.58 1446.10,229.39 1521.33,232.65 1559.37,236.57 1599.96,244.68 1636.92,256.98 1667.69,270.13 1833.85,346.13 1958.37,397.78 2016.45,421.49 2029.36,426.32 2047.90,431.77 2064.99,435.16 2081.17,436.62 2118.91,435.72 2161.55,427.50 2192.70,413.37 2221.82,394.56 2249.46,369.40 2266.41,347.05 2290.10,310.96 2312.91,266.76 2335.55,226.04 2355.45,197.90 2382.85,165.57 2422.66,131.49 2437.69,121.91 2462.03,106.36">
        <lane id="-387580521_0" index="0" disallow="pedestrian bicycle tram rail_urban rail rail_electric rail_fast ship" speed="27.78" length="1317.66" shape="1333.52,218.76 1339.49,215.40 1348.73,212.25 1362.90,211.87 1405.70,219.83 1446.48,224.60 1521.68,227.86 1560.09,231.82 1601.19,240.03 1638.62,252.49 1669.63,265.74 1835.77,341.73 1960.20,393.34 2018.20,417.02 2030.88,421.76 2049.05,427.10 2065.67,430.40 2081.33,431.81 2118.39,430.93 2160.08,422.89 2190.39,409.15 2218.88,390.74 2245.90,366.15 2262.49,344.28 2285.95,308.54 2308.68,264.49 2331.48,223.48 2351.65,194.96 2379.44,162.17 2419.80,127.62 2435.11,117.86 2459.45,102.32"/>
        <lane id="-387580521_1" index="1" disallow="pedestrian bicycle tram rail_urban rail rail_electric rail_fast ship" speed="27.78" length="1317.66" shape="1335.08,221.55 1340.80,218.33 1349.30,215.44 1362.65,215.08 1405.22,223.00 1446.23,227.79 1521.45,231.05 1559.61,234.99 1600.37,243.13 1637.49,255.48 1668.34,268.67 1834.49,344.66 1958.98,396.30 2017.03,420.00 2029.87,424.80 2048.28,430.21 2065.22,433.57 2081.22,435.02 2118.74,434.12 2161.06,425.96 2191.93,411.96 2220.84,393.29 2248.27,368.32 2265.10,346.13 2288.72,310.15 2311.50,266.00 2334.19,225.19 2354.18,196.92 2381.71,164.44 2421.71,130.20 2436.83,120.56 2461.17,105.01"/>
        <param key="ref" value="A2P"/>
    </edge>
    <edge id="-44220548" from="24869516" to="3688461068" priority="12" type="highway.primary" shape="1495.35,1273.98 1476.74,1276.64 1465.34,1277.93 1445.27,1276.50 1430.24,1274.21 1410.06,1269.29 1390.59,1262.84 1373.48,1254.73 1358.84,1246.81 1337.16,1232.26 1320.65,1218.51">
        <lane id="-44220548_0" index="0" disallow="tram rail_urban rail rail_electric rail_fast ship" speed="27.78" length="191.84" shape="1495.45,1278.81 1477.35,1281.40 1465.44,1282.75 1444.74,1281.27 1429.31,1278.92 1408.73,1273.91 1388.80,1267.30 1371.31,1259.01 1356.35,1250.92 1334.28,1236.11 1317.81,1222.39"/>
        <lane id="-44220548_1" index="1" disallow="tram rail_urban rail rail_electric rail_fast ship" speed="27.78" length="191.84" shape="1495.00,1275.65 1476.94,1278.23 1465.37,1279.54 1445.09,1278.09 1429.93,1275.78 1409.62,1270.83 1389.99,1264.33 1372.76,1256.16 1358.01,1248.18 1336.20,1233.54 1319.86,1219.94"/>
        <param key="ref" value="2"/>
    </edge>
    <edge id="-70488416" from="377703145" to="24869339" priority="13" type="highway.trunk" shape="2180.65,883.65 2147.69,869.86 2106.49,855.28 2045.51,837.70 2014.12,828.68 1961.43,808.33 1928.12,792.55 1877.73,761.15 1841.48,734.41 1812.28,704.28 1781.05,669.04 1756.18,632.60 1735.01,594.41 1715.99,555.98 1694.07,495.60 1678.47,460.62 1667.47,443.04 1650.05,416.48 1619.09,381.53 1585.08,353.83 1549.76,330.05 1522.15,315.37 1489.49,301.56 1463.46,293.43 1420.66,283.89 1393.37,279.70 1361.26,275.28 1345.73,271.15 1336.07,266.91 1328.29,259.91 1325.23,253.09 1324.73,244.39 1328.75,233.92 1334.27,223.84">
        <lane id="-70488416_0" index="0" disallow="pedestrian bicycle tram rail_urban rail rail_electric rail_fast ship" speed="27.78" length="1158.49" shape="2178.66,888.02 2145.96,874.34 2105.02,859.85 2044.18,842.31 2012.59,833.23 1959.54,812.74 1925.82,796.77 1875.03,765.12 1838.31,738.04 1808.76,707.54 1777.26,672.00 1752.09,635.12 1730.76,596.64 1711.57,557.87 1689.62,497.40 1674.22,462.88 1663.43,445.63 1646.23,419.40 1615.76,385.01 1582.22,357.69 1547.29,334.17 1520.08,319.71 1487.84,306.07 1462.22,298.07 1419.77,288.61 1392.68,284.45 1360.31,279.99 1344.14,275.69 1333.43,270.99 1324.33,262.80 1320.49,254.25 1319.88,243.63 1324.38,231.90 1329.18,223.14"/>
        <lane id="-70488416_1" index="1" disallow="pedestrian bicycle tram rail_urban rail rail_electric rail_fast ship" speed="27.78" length="1158.49" shape="2179.90,885.07 2147.11,871.35 2106.00,856.80 2045.07,839.24 2013.61,830.20 1960.80,809.80 1927.35,793.96 1876.83,762.47 1840.42,735.62 1811.11,705.37 1779.79,670.03 1754.82,633.44 1733.59,595.15 1714.52,556.61 1692.59,496.20 1677.05,461.37 1666.12,443.90 1648.78,417.45 1617.98,382.69 1584.13,355.12 1548.94,331.42 1521.46,316.82 1488.94,303.06 1463.05,294.98 1420.36,285.46 1393.14,281.28 1360.94,276.85 1345.20,272.66 1335.19,268.27 1326.97,260.87 1323.65,253.48 1323.11,244.14 1327.29,233.25 1331.99,224.68"/>
        <param key="ref" value="A2P"/>
    </edge>
    <edge id="-70488488#0" from="298988494" to="24869516" priority="12" type="highway.primary" shape="889.54,1355.66 895.50,1370.23 901.82,1382.17 909.94,1396.50 920.70,1410.32 932.89,1421.99 946.48,1431.94 967.32,1444.74 981.44,1452.10 995.00,1458.17 1019.60,1465.94 1034.99,1469.46 1049.41,1471.53 1082.09,1473.28 1101.19,1473.30 1128.31,1471.24 1134.45,1470.45 1156.64,1467.62 1192.28,1460.13 1228.74,1451.79 1264.86,1441.88 1301.81,1428.71 1357.37,1406.23 1425.89,1371.39 1459.17,1351.10 1486.93,1331.32 1547.58,1285.39 1570.80,1269.10 1592.74,1257.25 1615.54,1248.48 1627.39,1241.13 1631.25,1237.23 1634.46,1231.23 1635.28,1222.97 1634.56,1214.68 1631.43,1207.62 1624.91,1200.99 1618.01,1197.45 1608.64,1196.78 1599.71,1199.18 1591.40,1203.73 1585.67,1209.61 1578.32,1218.36 1571.78,1227.00 1564.52,1235.14 1557.05,1242.56 1547.52,1249.28 1540.25,1254.24 1534.24,1258.50 1514.23,1267.63 1495.35,1273.98">
        <lane id="-70488488#0_0" index="0" disallow="tram rail_urban rail rail_electric rail_fast ship" speed="27.78" length="1031.80" shape="894.04,1353.98 899.85,1368.19 906.03,1379.86 913.94,1393.83 924.27,1407.09 935.98,1418.30 949.16,1427.95 969.69,1440.56 983.53,1447.78 996.71,1453.68 1020.86,1461.30 1035.87,1464.74 1049.88,1466.75 1082.22,1468.48 1101.01,1468.50 1127.82,1466.46 1133.84,1465.69 1155.84,1462.88 1191.25,1455.44 1227.57,1447.13 1263.42,1437.30 1300.10,1424.22 1355.38,1401.86 1423.55,1367.20 1456.52,1347.09 1484.09,1327.45 1544.75,1281.51 1568.27,1265.01 1590.73,1252.88 1613.39,1244.16 1624.38,1237.35 1627.35,1234.35 1629.78,1229.81 1630.46,1222.94 1629.85,1215.89 1627.40,1210.36 1622.03,1204.91 1616.69,1202.17 1609.10,1201.63 1601.51,1203.67 1594.34,1207.59 1589.23,1212.83 1582.07,1221.35 1575.49,1230.05 1568.01,1238.44 1560.15,1246.25 1550.26,1253.22 1542.99,1258.18 1536.65,1262.68 1516.00,1272.10 1497.44,1278.34"/>
        <lane id="-70488488#0_1" index="1" disallow="tram rail_urban rail rail_electric rail_fast ship" speed="27.78" length="1031.80" shape="891.08,1355.19 896.95,1369.55 903.22,1381.40 911.27,1395.61 921.89,1409.24 933.92,1420.76 947.37,1430.61 968.11,1443.35 982.14,1450.66 995.57,1456.67 1020.02,1464.39 1035.28,1467.89 1049.57,1469.94 1082.13,1471.68 1101.13,1471.70 1128.15,1469.65 1134.25,1468.86 1156.37,1466.04 1191.94,1458.57 1228.35,1450.24 1264.38,1440.35 1301.24,1427.21 1356.71,1404.77 1425.11,1369.99 1458.29,1349.76 1485.98,1330.03 1546.64,1284.10 1569.96,1267.74 1592.07,1255.79 1614.82,1247.04 1626.39,1239.87 1629.95,1236.27 1632.90,1230.76 1633.67,1222.96 1632.99,1215.08 1630.09,1208.53 1623.95,1202.30 1617.57,1199.02 1608.79,1198.40 1600.31,1200.68 1592.38,1205.02 1586.86,1210.68 1579.57,1219.36 1573.02,1228.02 1565.68,1236.24 1558.08,1243.79 1548.43,1250.59 1541.16,1255.55 1535.04,1259.89 1514.82,1269.12 1496.42,1275.31"/>
        <param key="ref" value="2"/>
    </edge>
    <edge id="-746194674#0" from="1270180618" to="377703145" priority="13" type="highway.trunk" shape="911.64,597.92 921.90,606.47 940.15,618.95 955.47,627.19 996.16,642.63 1047.35,656.51 1055.57,658.07 1111.46,668.75 1129.08,670.79 1211.06,676.39 1241.38,679.90 1276.81,686.86 1320.04,700.31 1382.15,722.90 1428.25,739.09 1570.51,789.70 1608.04,805.56 1642.87,824.68 1672.04,845.06 1734.75,896.74 1762.12,918.81 1797.04,943.36 1839.21,962.00 1882.98,974.18 1926.85,982.42 1970.31,987.98 2013.54,990.47 2055.59,989.49 2095.32,985.04 2132.67,979.50 2167.96,974.82 2202.39,972.38 2213.45,972.25 2221.59,972.07 2236.07,971.67 2266.29,973.19 2291.98,976.26 2324.88,982.45 2358.35,989.94 2370.10,990.82 2379.02,988.95 2385.28,984.83 2390.88,979.03 2392.75,975.52 2394.50,972.24 2395.29,963.10 2392.89,952.71 2386.66,945.67 2377.63,942.08 2356.06,940.24 2326.13,937.66 2301.00,932.19 2270.54,921.27 2225.43,902.43 2211.37,896.14 2180.65,883.65">
        <lane id="-746194674#0_0" index="0" disallow="pedestrian bicycle tram rail_urban rail rail_electric rail_fast ship" speed="27.78" length="1817.15" shape="914.92,594.40 924.80,602.64 942.65,614.84 957.47,622.81 997.64,638.06 1048.43,651.83 1056.47,653.36 1112.19,664.00 1129.52,666.01 1211.50,671.61 1242.12,675.15 1277.99,682.20 1321.57,695.76 1383.77,718.38 1429.85,734.56 1572.25,785.22 1610.13,801.23 1645.41,820.60 1674.95,841.23 1737.78,893.02 1765.01,914.97 1799.41,939.16 1840.83,957.47 1884.07,969.50 1927.60,977.68 1970.75,983.20 2013.62,985.67 2055.27,984.70 2094.70,980.28 2132.00,974.75 2167.47,970.04 2202.19,967.58 2213.37,967.45 2221.47,967.27 2236.12,966.87 2266.70,968.40 2292.71,971.51 2325.85,977.75 2359.06,985.18 2369.78,985.98 2377.14,984.44 2382.20,981.11 2386.96,976.18 2388.51,973.26 2389.80,970.85 2390.44,963.44 2388.49,954.98 2383.82,949.71 2376.52,946.80 2355.65,945.02 2325.41,942.42 2299.67,936.81 2268.80,925.75 2223.52,906.84 2209.49,900.56 2178.98,888.15"/>
        <lane id="-746194674#0_1" index="1" disallow="pedestrian bicycle tram rail_urban rail rail_electric rail_fast ship" speed="27.78" length="1817.15" shape="912.87,596.86 922.87,605.19 940.98,617.58 956.14,625.73 996.65,641.11 1047.71,654.95 1055.87,656.50 1111.70,667.17 1129.23,669.20 1211.21,674.80 1241.63,678.32 1277.20,685.31 1320.55,698.79 1382.69,721.39 1428.78,737.58 1571.09,788.21 1608.74,804.12 1643.72,823.32 1673.01,843.78 1735.76,895.50 1763.08,917.53 1797.83,941.96 1839.75,960.49 1883.34,972.62 1927.10,980.84 1970.46,986.39 2013.57,988.87 2055.48,987.89 2095.11,983.45 2132.45,977.92 2167.80,973.23 2202.32,970.78 2213.42,970.65 2221.55,970.47 2236.09,970.07 2266.43,971.59 2292.22,974.68 2325.20,980.88 2358.59,988.35 2369.99,989.21 2378.39,987.45 2384.25,983.59 2389.57,978.08 2391.34,974.77 2392.93,971.78 2393.67,963.21 2391.42,953.47 2385.71,947.02 2377.26,943.65 2355.92,941.83 2325.89,939.25 2300.56,933.73 2269.96,922.76 2224.79,903.90 2210.74,897.61 2180.18,885.19"/>
        <param key="ref" value="A2P"/>
    </edge>
    <edge id="-746194677" from="24869503" to="1270180618" priority="13" type="highway.trunk" shape="1259.25,1082.89 1248.44,994.47 1235.14,952.59 1216.49,913.64 1193.25,880.53 1177.94,864.00 1163.15,848.50 1147.39,832.89 1131.62,817.29 1097.72,786.82 1065.08,759.20 1042.09,741.84 963.84,682.76 933.60,658.05 880.78,612.31 842.80,582.43 814.61,561.86 808.55,554.21 804.34,544.50 804.97,537.45 806.26,529.95 810.64,522.43 816.37,518.00 823.42,515.32 830.72,515.28 838.48,518.76 845.58,524.01 852.48,531.69 860.04,540.90 871.39,555.39 883.63,569.65 898.82,585.08 905.19,591.57 911.64,597.92">
        <lane id="-746194677_0" index="0" disallow="pedestrian bicycle tram rail_urban rail rail_electric rail_fast ship" speed="27.78" length="901.99" shape="1254.43,1083.01 1243.73,995.50 1230.67,954.36 1212.33,916.07 1189.51,883.55 1174.44,867.29 1159.72,851.86 1144.01,836.30 1128.33,820.78 1094.56,790.44 1062.08,762.95 1039.20,745.67 960.87,686.54 930.51,661.72 877.72,616.01 839.90,586.26 811.25,565.35 804.40,556.70 799.45,545.29 800.21,536.83 801.68,528.28 806.96,519.21 814.00,513.77 822.53,510.52 831.73,510.47 840.92,514.59 848.83,520.44 856.12,528.56 863.78,537.90 875.10,552.35 887.17,566.40 902.24,581.71 908.59,588.18 914.82,594.31"/>
        <lane id="-746194677_1" index="1" disallow="pedestrian bicycle tram rail_urban rail rail_electric rail_fast ship" speed="27.78" length="901.99" shape="1257.60,1082.62 1246.87,994.81 1233.65,953.18 1215.10,914.45 1192.00,881.54 1176.77,865.10 1162.01,849.62 1146.26,834.03 1130.52,818.45 1096.67,788.03 1064.08,760.45 1041.13,743.12 962.85,684.02 932.57,659.27 879.76,613.54 841.83,583.71 813.49,563.02 807.17,555.04 802.71,544.76 803.38,537.24 804.73,529.39 809.41,521.36 815.58,516.59 823.12,513.72 831.06,513.68 839.29,517.37 846.66,522.82 853.69,530.65 861.29,539.90 872.63,554.38 884.81,568.57 899.96,583.96 906.32,590.44 912.57,596.59"/>
        <param key="ref" value="A2P"/>
    </edge>
    <edge id="-746194679" from="24869579" to="298988494" priority="12" type="highway.primary" shape="614.99,715.09 651.03,731.17 684.86,749.61 716.32,772.51 744.60,800.07 769.58,831.61 790.54,865.44 806.28,902.40 819.22,940.11 830.08,978.62 839.42,1018.12 841.13,1026.93 847.28,1058.66 854.18,1099.82 856.67,1120.05 860.31,1183.49 863.84,1225.25 867.63,1266.17 872.95,1307.37 877.97,1324.95 884.43,1342.87 889.54,1355.66">
        <lane id="-746194679_0" index="0" disallow="tram rail_urban rail rail_electric rail_fast ship" speed="27.78" length="741.99" shape="616.95,710.71 653.16,726.86 687.43,745.55 719.42,768.83 748.17,796.85 773.51,828.85 794.81,863.22 810.76,900.68 823.80,938.68 834.73,977.42 844.11,1017.11 845.84,1026.02 852.00,1057.81 858.93,1099.13 861.45,1119.62 865.10,1183.15 868.62,1224.83 872.40,1265.64 877.66,1306.40 882.54,1323.48 888.92,1341.17 893.94,1353.74"/>
        <lane id="-746194679_1" index="1" disallow="tram rail_urban rail rail_electric rail_fast ship" speed="27.78" length="741.99" shape="615.64,713.63 651.74,729.73 685.72,748.26 717.35,771.28 745.79,799.00 770.89,830.69 791.96,864.70 807.77,901.83 820.75,939.63 831.63,978.22 840.98,1017.78 842.70,1026.63 848.85,1058.38 855.76,1099.59 858.26,1119.91 861.91,1183.38 865.43,1225.11 869.22,1265.99 874.52,1307.05 879.49,1324.46 885.93,1342.30 890.97,1354.93"/>
        <param key="ref" value="2"/>
    </edge>
    <edge id="40533548" from="318343245" to="24869339" priority="13" type="highway.trunk" shape="2462.03,106.36 2437.69,121.91 2422.66,131.49 2382.85,165.57 2355.45,197.90 2335.55,226.04 2312.91,266.76 2290.10,310.96 2266.41,347.05 2249.46,369.40 2221.82,394.56 2192.70,413.37 2161.55,427.50 2118.91,435.72 2081.17,436.62 2064.99,435.16 2047.90,431.77 2029.36,426.32 2016.45,421.49 1958.37,397.78 1833.85,346.13 1667.69,270.13 1636.92,256.98 1599.96,244.68 1559.37,236.57 1521.33,232.65 1446.10,229.39 1404.98,224.58 1362.52,216.68 1349.59,217.03 1341.46,219.80 1334.27,223.84">
        <lane id="40533548_0" index="0" disallow="pedestrian bicycle tram rail_urban rail rail_electric rail_fast ship" speed="27.78" length="1318.02" shape="2464.61,110.40 2440.27,125.96 2425.52,135.36 2386.26,168.97 2359.25,200.84 2339.62,228.60 2317.14,269.03 2294.25,313.38 2270.33,349.82 2253.02,372.65 2224.76,398.38 2195.01,417.59 2163.02,432.11 2119.43,440.51 2081.01,441.43 2064.31,439.92 2046.75,436.44 2027.84,430.88 2014.70,425.96 1956.54,402.22 1831.93,350.53 1665.75,274.52 1635.22,261.47 1598.73,249.33 1558.65,241.32 1520.98,237.44 1445.72,234.18 1404.26,229.33 1362.14,221.49 1350.45,221.81 1343.43,224.20 1338.22,227.13"/>
        <lane id="40533548_1" index="1" disallow="pedestrian bicycle tram rail_urban rail rail_electric rail_fast ship" speed="27.78" length="1318.02" shape="2462.89,107.71 2438.55,123.26 2423.61,132.78 2383.99,166.70 2356.72,198.88 2336.91,226.89 2314.32,267.52 2291.48,311.77 2267.72,347.97 2250.65,370.48 2222.80,395.83 2193.47,414.78 2162.04,429.04 2119.08,437.32 2081.12,438.22 2064.76,436.75 2047.52,433.33 2028.85,427.84 2015.87,422.98 1957.76,399.26 1833.21,347.60 1667.04,271.59 1636.35,258.48 1599.55,246.23 1559.13,238.15 1521.21,234.25 1445.97,230.99 1404.74,226.16 1362.39,218.28 1349.88,218.62 1342.12,221.27 1336.65,224.34"/>